omega_1
  -OEChem-
 Structure written by MMmdl.
 12 11  0     0  0  0  0  0  0999 V2000
   -0.0096   -0.6609    0.8591 C   0  0  0  0  0  0  0  0  0  0  0  0
    1.2464   -0.4478    1.7115 C   0  0  0  0  0  0  0  0  0  0  0  0
    1.2796   -1.3531    2.9480 C   0  0  0  0  0  0  0  0  0  0  0  0
    2.4617   -1.0947    3.6733 O   0  0  0  0  0  0  0  0  0  0  0  0
   -0.0725   -1.6881    0.4988 H   0  0  0  0  0  0  0  0  0  0  0  0
   -0.9142   -0.4474    1.4290 H   0  0  0  0  0  0  0  0  0  0  0  0
   -0.0029   -0.0040   -0.0110 H   0  0  0  0  0  0  0  0  0  0  0  0
    1.2988    0.5967    2.0219 H   0  0  0  0  0  0  0  0  0  0  0  0
    2.1320   -0.6306    1.1011 H   0  0  0  0  0  0  0  0  0  0  0  0
    0.4142   -1.1666    3.5859 H   0  0  0  0  0  0  0  0  0  0  0  0
    1.2545   -2.4044    2.6572 H   0  0  0  0  0  0  0  0  0  0  0  0
    2.4838   -1.6522    4.4372 H   0  0  0  0  0  0  0  0  0  0  0  0
  1  2  1  0  0  0  0
  1  5  1  0  0  0  0
  1  6  1  0  0  0  0
  1  7  1  0  0  0  0
  2  3  1  0  0  0  0
  2  8  1  0  0  0  0
  2  9  1  0  0  0  0
  3  4  1  0  0  0  0
  3 10  1  0  0  0  0
  3 11  1  0  0  0  0
  4 12  1  0  0  0  0
M  END
> <r_mmod_Potential_Energy-OPLS-2005>
3.31511330604553

> <r_mmod_Stretch_Energy-OPLS-2005>
0.0417717881500721

> <r_mmod_Bend_Energy-OPLS-2005>
0.477922171354294

> <r_mmod_Torsional_Energy-OPLS-2005>
0.0465190708637238

> <r_mmod_Improper_Torsional_Energy-OPLS-2005>
0

> <r_mmod_Van_der_Waal_Energy-OPLS-2005>
0.15571354329586

> <r_mmod_Electrostatic_Energy-OPLS-2005>
2.59318661689758

> <b_mmod_Minimization_Converged-OPLS-2005>
1

> <r_mmod_RMS_Derivative-OPLS-2005>
0.0213198978453875

> <MinMethod>
MACROMODEL_OPLS_2005_VACUUM

> <ForceField>
OPLS_2005

> <Solvent>
VACUUM

> <Program>
MACROMODEL

$$$$
