omega_1
  -OEChem-

 12 11  0     0  0  0  0  0  0999 V2000
   -0.0052   -0.6666    0.8713 C   0  0  0  0  0  0  0  0  0  0  0  0
    1.2436   -0.4456    1.7057 C   0  0  0  0  0  0  0  0  0  0  0  0
    1.2721   -1.3458    2.9314 C   0  0  0  0  0  0  0  0  0  0  0  0
    2.4618   -1.0868    3.6637 O   0  0  0  0  0  0  0  0  0  0  0  0
   -0.0616   -1.7004    0.5160 H   0  0  0  0  0  0  0  0  0  0  0  0
   -0.9080   -0.4531    1.4524 H   0  0  0  0  0  0  0  0  0  0  0  0
    0.0002   -0.0072   -0.0022 H   0  0  0  0  0  0  0  0  0  0  0  0
    1.3016    0.6038    2.0185 H   0  0  0  0  0  0  0  0  0  0  0  0
    2.1360   -0.6272    1.0947 H   0  0  0  0  0  0  0  0  0  0  0  0
    0.4133   -1.1488    3.5809 H   0  0  0  0  0  0  0  0  0  0  0  0
    1.2643   -2.4012    2.6409 H   0  0  0  0  0  0  0  0  0  0  0  0
    2.4534   -1.6743    4.4386 H   0  0  0  0  0  0  0  0  0  0  0  0
  1  2  1  0  0  0  0
  2  3  1  0  0  0  0
  3  4  1  0  0  0  0
  1  5  1  0  0  0  0
  1  6  1  0  0  0  0
  1  7  1  0  0  0  0
  2  8  1  0  0  0  0
  2  9  1  0  0  0  0
  3 10  1  0  0  0  0
  3 11  1  0  0  0  0
  4 12  1  0  0  0  0
M  END
> <Total_energy>
-1.8102

> <Program>
SZYBKI

> <ForceField>
MMFF94S

> <MinMethod>
SZYBKI_MMFF94S_VACUUM

> <Solvent>
VACUUM

$$$$
