-
  -OEChem-
Gaussian  #T
  6  5  0     0  0  0  0  0  0999 V2000
   -0.6555   -0.0198   -0.0000 C   0  0  0  0  0  0  0  0  0  0  0  0
    0.7369    0.1206   -0.0000 O   0  0  0  0  0  0  0  0  0  0  0  0
   -1.0764    0.9760   -0.0003 H   0  0  0  0  0  0  0  0  0  0  0  0
   -1.0128   -0.5430    0.8837 H   0  0  0  0  0  0  0  0  0  0  0  0
   -1.0128   -0.5436   -0.8834 H   0  0  0  0  0  0  0  0  0  0  0  0
    1.1400   -0.7358    0.0001 H   0  0  0  0  0  0  0  0  0  0  0  0
  1  4  1  0  0  0  0
  1  2  1  0  0  0  0
  2  6  1  0  0  0  0
  1  3  1  0  0  0  0
  1  5  1  0  0  0  0
M  END
> <SMILES>
CO

> <EnergyType>
MP2

> <Job>
 # Geom=AllCheck Guess=TCheck MP2/6-311+g**

> <fName>
-

> <Energy>
-115.444288

$$$$
