-
  -OEChem-
Gaussian  #T
 20 21  0     1  0  0  0  0  0999 V2000
    0.7305   -0.7716    1.6000 C   0  0  0  0  0  0  0  0  0  0  0  0
    1.4109   -1.4753    1.0626 H   0  0  0  0  0  0  0  0  0  0  0  0
    0.2375   -1.3340    2.4292 H   0  0  0  0  0  0  0  0  0  0  0  0
   -0.3242   -0.1920    0.6378 C   0  0  0  0  0  0  0  0  0  0  0  0
   -1.3514   -0.3222    1.0766 H   0  0  0  0  0  0  0  0  0  0  0  0
   -0.0986    1.2414    0.4709 N   0  0  0  0  0  0  0  0  0  0  0  0
   -0.2993   -0.7274   -0.3478 H   0  0  0  0  0  0  0  0  0  0  0  0
    0.3321    1.4220   -0.4180 H   0  0  0  0  0  0  0  0  0  0  0  0
    0.7799    1.6759    1.5499 C   0  0  0  0  0  0  0  0  0  0  0  0
    0.1344    2.1400    2.3459 H   0  0  0  0  0  0  0  0  0  0  0  0
    1.4937    0.4380    2.1559 C   0  0  2  0  0  0  0  0  0  0  0  0
    1.5140    2.4475    1.2003 H   0  0  0  0  0  0  0  0  0  0  0  0
    4.9189    0.3955    0.8764 C   0  0  0  0  0  0  0  0  0  0  0  0
    3.5486    0.5237    0.6046 N   0  0  0  0  0  0  0  0  0  0  0  0
    1.4283    0.4702    3.2762 H   0  0  0  0  0  0  0  0  0  0  0  0
    2.9270    0.4012    1.7791 C   0  0  0  0  0  0  0  0  0  0  0  0
    3.8392    0.1933    2.8355 O   0  0  0  0  0  0  0  0  0  0  0  0
    5.0981    0.1940    2.2371 C   0  0  0  0  0  0  0  0  0  0  0  0
    5.6562    0.4589    0.0763 H   0  0  0  0  0  0  0  0  0  0  0  0
    5.9342    0.0454    2.9102 H   0  0  0  0  0  0  0  0  0  0  0  0
  1 11  1  0  0  0  0
  1  3  1  0  0  0  0
  1  2  1  0  0  0  0
  4  5  1  0  0  0  0
  1  4  1  0  0  0  0
  4  6  1  0  0  0  0
  6  9  1  0  0  0  0
  4  7  1  0  0  0  0
  6  8  1  0  0  0  0
  9 11  1  0  0  0  0
  9 10  1  0  0  0  0
 11 15  1  1  0  0  0
  9 12  1  0  0  0  0
 13 18  2  0  0  0  0
 13 14  1  0  0  0  0
 14 16  2  0  0  0  0
 11 16  1  0  0  0  0
 16 17  1  0  0  0  0
 17 18  1  0  0  0  0
 18 20  1  0  0  0  0
 13 19  1  0  0  0  0
M  END
> <SMILES>
c1coc(n1)[C@@H]2CCNC2

> <EnergyType>
RAM1

> <Job>
 # opt(ModRedundant,MaxCycles=800) AM1 NoSym

> <fName>
-

> <Energy>
0.012802

> <ScanVar_1>
10.0

> <ScanAtoms_1>
14 10 15 16

$$$$
